<?xml version="1.0" encoding="utf-8"?>
<!DOCTYPE population SYSTEM "http://www.matsim.org/files/dtd/population_v6.dtd">

<population>



<!-- ====================================================================== -->

	<person id="agent_from_2_0">
		<plan selected="yes">
			<activity type="h" link="os2" x="12100.0" y="-20890.0" end_time="06:00:00" >
			</activity>
			<leg mode="car" dep_time="06:00:00" trav_time="00:19:49">
				<route type="links" start_link="os2" end_link="-4" trav_time="00:19:49" distance="27600.0">os2 o2 20 -2 4 -4</route>
			</leg>
			<activity type="w" link="-4" x="-771.773080416166" y="437.45825960314073" end_time="15:00:00" >
			</activity>
		</plan>

	</person>

<!-- ====================================================================== -->

	<person id="agent_from_2_1">
		<plan selected="yes">
			<activity type="h" link="os2" x="12100.0" y="-20890.0" end_time="06:00:01" >
			</activity>
			<leg mode="car" dep_time="06:00:01" trav_time="00:19:49">
				<route type="links" start_link="os2" end_link="-1" trav_time="00:19:49" distance="27600.0">os2 o2 20 -2 1 -1</route>
			</leg>
			<activity type="w" link="-1" x="482.9608895301435" y="-234.60455303154367" end_time="15:00:01" >
			</activity>
		</plan>

	</person>

<!-- ====================================================================== -->

	<person id="agent_from_2_10">
		<plan selected="yes">
			<activity type="h" link="os2" x="12100.0" y="-20890.0" end_time="06:00:10" >
			</activity>
			<leg mode="car" dep_time="06:00:10" trav_time="00:19:49">
				<route type="links" start_link="os2" end_link="-6" trav_time="00:19:49" distance="27600.0">os2 o2 20 -2 6 -6</route>
			</leg>
			<activity type="w" link="-6" x="20.717258653586214" y="719.9494436547307" end_time="15:00:10" >
			</activity>
		</plan>

	</person>

<!-- ====================================================================== -->

	<person id="agent_from_2_100">
		<plan selected="yes">
			<activity type="h" link="os2" x="12100.0" y="-20890.0" end_time="06:01:40" >
			</activity>
			<leg mode="car" dep_time="06:01:40" trav_time="00:18:55">
				<route type="links" start_link="os2" end_link="6" trav_time="00:18:55" distance="26400.0">os2 o2 20 -2 6</route>
			</leg>
			<activity type="w" link="6" x="169.27796696234145" y="252.56211789587292" end_time="15:01:40" >
			</activity>
		</plan>

	</person>

<!-- ====================================================================== -->

	<person id="agent_from_2_101">
		<plan selected="yes">
			<activity type="h" link="os2" x="12100.0" y="-20890.0" end_time="06:01:41" >
			</activity>
			<leg mode="car" dep_time="06:01:41" trav_time="00:19:49">
				<route type="links" start_link="os2" end_link="-6" trav_time="00:19:49" distance="27600.0">os2 o2 20 -2 6 -6</route>
			</leg>
			<activity type="w" link="-6" x="953.6130724363854" y="578.845724643917" end_time="15:01:41" >
			</activity>
		</plan>

	</person>

<!-- ====================================================================== -->

	<person id="agent_from_2_102">
		<plan selected="yes">
			<activity type="h" link="os2" x="12100.0" y="-20890.0" end_time="06:01:42" >
			</activity>
			<leg mode="car" dep_time="06:01:42" trav_time="00:19:49">
				<route type="links" start_link="os2" end_link="-3" trav_time="00:19:49" distance="27600.0">os2 o2 20 -2 3 -3</route>
			</leg>
			<activity type="w" link="-3" x="-114.48867623430431" y="-378.00326588777295" end_time="15:01:42" >
			</activity>
		</plan>

	</person>

<!-- ====================================================================== -->

	<person id="agent_from_2_103">
		<plan selected="yes">
			<activity type="h" link="os2" x="12100.0" y="-20890.0" end_time="06:01:43" >
			</activity>
			<leg mode="car" dep_time="06:01:43" trav_time="00:19:49">
				<route type="links" start_link="os2" end_link="-1" trav_time="00:19:49" distance="27600.0">os2 o2 20 -2 1 -1</route>
			</leg>
			<activity type="w" link="-1" x="995.0922435917514" y="21.18339703571519" end_time="15:01:43" >
			</activity>
		</plan>

	</person>

<!-- ====================================================================== -->

	<person id="agent_from_2_104">
		<plan selected="yes">
			<activity type="h" link="os2" x="12100.0" y="-20890.0" end_time="06:01:44" >
			</activity>
			<leg mode="car" dep_time="06:01:44" trav_time="00:19:49">
				<route type="links" start_link="os2" end_link="-6" trav_time="00:19:49" distance="27600.0">os2 o2 20 -2 6 -6</route>
			</leg>
			<activity type="w" link="-6" x="125.92312738206306" y="868.2266611649325" end_time="15:01:44" >
			</activity>
		</plan>

	</person>

<!-- ====================================================================== -->

	<person id="agent_from_2_105">
		<plan selected="yes">
			<activity type="h" link="os2" x="12100.0" y="-20890.0" end_time="06:01:45" >
			</activity>
			<leg mode="car" dep_time="06:01:45" trav_time="00:19:49">
				<route type="links" start_link="os2" end_link="05" trav_time="00:19:49" distance="38400.0">os2 o2 20 -2 5 05</route>
			</leg>
			<activity type="w" link="05" x="-898.099558299813" y="918.6000788797458" end_time="15:01:45" >
			</activity>
		</plan>

	</person>

<!-- ====================================================================== -->

	<person id="agent_from_2_106">
		<plan selected="yes">
			<activity type="h" link="os2" x="12100.0" y="-20890.0" end_time="06:01:46" >
			</activity>
			<leg mode="car" dep_time="06:01:46" trav_time="00:19:49">
				<route type="links" start_link="os2" end_link="-3" trav_time="00:19:49" distance="27600.0">os2 o2 20 -2 3 -3</route>
			</leg>
			<activity type="w" link="-3" x="-157.89715861862237" y="-164.45395173066981" end_time="15:01:46" >
			</activity>
		</plan>

	</person>

<!-- ====================================================================== -->

	<person id="agent_from_2_107">
		<plan selected="yes">
			<activity type="h" link="os2" x="12100.0" y="-20890.0" end_time="06:01:47" >
			</activity>
			<leg mode="car" dep_time="06:01:47" trav_time="00:18:55">
				<route type="links" start_link="os2" end_link="2" trav_time="00:18:55" distance="26400.0">os2 o2 20 -2 2</route>
			</leg>
			<activity type="w" link="2" x="278.44997291961977" y="-402.4085655211858" end_time="15:01:47" >
			</activity>
		</plan>

	</person>

<!-- ====================================================================== -->

	<person id="agent_from_2_108">
		<plan selected="yes">
			<activity type="h" link="os2" x="12100.0" y="-20890.0" end_time="06:01:48" >
			</activity>
			<leg mode="car" dep_time="06:01:48" trav_time="00:19:49">
				<route type="links" start_link="os2" end_link="-6" trav_time="00:19:49" distance="27600.0">os2 o2 20 -2 6 -6</route>
			</leg>
			<activity type="w" link="-6" x="367.28592439672275" y="904.3999705009555" end_time="15:01:48" >
			</activity>
		</plan>

	</person>

<!-- ====================================================================== -->

	<person id="agent_from_2_109">
		<plan selected="yes">
			<activity type="h" link="os2" x="12100.0" y="-20890.0" end_time="06:01:49" >
			</activity>
			<leg mode="car" dep_time="06:01:49" trav_time="00:19:49">
				<route type="links" start_link="os2" end_link="-4" trav_time="00:19:49" distance="27600.0">os2 o2 20 -2 4 -4</route>
			</leg>
			<activity type="w" link="-4" x="-729.6820518894519" y="-399.58052440925496" end_time="15:01:49" >
			</activity>
		</plan>

	</person>

<!-- ====================================================================== -->

	<person id="agent_from_2_11">
		<plan selected="yes">
			<activity type="h" link="os2" x="12100.0" y="-20890.0" end_time="06:00:11" >
			</activity>
			<leg mode="car" dep_time="06:00:11" trav_time="00:19:49">
				<route type="links" start_link="os2" end_link="-1" trav_time="00:19:49" distance="27600.0">os2 o2 20 -2 1 -1</route>
			</leg>
			<activity type="w" link="-1" x="830.878468045602" y="364.8371742308691" end_time="15:00:11" >
			</activity>
		</plan>

	</person>

<!-- ====================================================================== -->

	<person id="agent_from_2_110">
		<plan selected="yes">
			<activity type="h" link="os2" x="12100.0" y="-20890.0" end_time="06:01:50" >
			</activity>
			<leg mode="car" dep_time="06:01:50" trav_time="00:19:49">
				<route type="links" start_link="os2" end_link="-6" trav_time="00:19:49" distance="27600.0">os2 o2 20 -2 6 -6</route>
			</leg>
			<activity type="w" link="-6" x="117.7487973339114" y="333.35781087285727" end_time="15:01:50" >
			</activity>
		</plan>

	</person>

<!-- ====================================================================== -->

	<person id="agent_from_2_111">
		<plan selected="yes">
			<activity type="h" link="os2" x="12100.0" y="-20890.0" end_time="06:01:51" >
			</activity>
			<leg mode="car" dep_time="06:01:51" trav_time="00:18:01">
				<route type="links" start_link="os2" end_link="02" trav_time="00:18:01" distance="36000.0">os2 o2 20 02</route>
			</leg>
			<activity type="w" link="02" x="705.7817538571412" y="-997.8843526470156" end_time="15:01:51" >
			</activity>
		</plan>

	</person>

<!-- ====================================================================== -->

	<person id="agent_from_2_112">
		<plan selected="yes">
			<activity type="h" link="os2" x="12100.0" y="-20890.0" end_time="06:01:52" >
			</activity>
			<leg mode="car" dep_time="06:01:52" trav_time="00:19:49">
				<route type="links" start_link="os2" end_link="-4" trav_time="00:19:49" distance="27600.0">os2 o2 20 -2 4 -4</route>
			</leg>
			<activity type="w" link="-4" x="-585.4790148263913" y="247.11522183110264" end_time="15:01:52" >
			</activity>
		</plan>

	</person>

<!-- ====================================================================== -->

	<person id="agent_from_2_113">
		<plan selected="yes">
			<activity type="h" link="os2" x="12100.0" y="-20890.0" end_time="06:01:53" >
			</activity>
			<leg mode="car" dep_time="06:01:53" trav_time="00:19:49">
				<route type="links" start_link="os2" end_link="-1" trav_time="00:19:49" distance="27600.0">os2 o2 20 -2 1 -1</route>
			</leg>
			<activity type="w" link="-1" x="796.972337999083" y="109.44452873102273" end_time="15:01:53" >
			</activity>
		</plan>

	</person>

<!-- ====================================================================== -->

	<person id="agent_from_2_114">
		<plan selected="yes">
			<activity type="h" link="os2" x="12100.0" y="-20890.0" end_time="06:01:54" >
			</activity>
			<leg mode="car" dep_time="06:01:54" trav_time="00:18:55">
				<route type="links" start_link="os2" end_link="5" trav_time="00:18:55" distance="26400.0">os2 o2 20 -2 5</route>
			</leg>
			<activity type="w" link="5" x="-734.5585421238388" y="942.0946428612767" end_time="15:01:54" >
			</activity>
		</plan>

	</person>

<!-- ====================================================================== -->

	<person id="agent_from_2_115">
		<plan selected="yes">
			<activity type="h" link="os2" x="12100.0" y="-20890.0" end_time="06:01:55" >
			</activity>
			<leg mode="car" dep_time="06:01:55" trav_time="00:18:01">
				<route type="links" start_link="os2" end_link="-2" trav_time="00:18:01" distance="25200.0">os2 o2 20 -2</route>
			</leg>
			<activity type="w" link="-2" x="511.9618030465572" y="-801.2518048733126" end_time="15:01:55" >
			</activity>
		</plan>

	</person>

<!-- ====================================================================== -->

	<person id="agent_from_2_116">
		<plan selected="yes">
			<activity type="h" link="os2" x="12100.0" y="-20890.0" end_time="06:01:56" >
			</activity>
			<leg mode="car" dep_time="06:01:56" trav_time="00:19:49">
				<route type="links" start_link="os2" end_link="-5" trav_time="00:19:49" distance="27600.0">os2 o2 20 -2 5 -5</route>
			</leg>
			<activity type="w" link="-5" x="-487.96035934738666" y="448.79183762267803" end_time="15:01:56" >
			</activity>
		</plan>

	</person>

<!-- ====================================================================== -->

	<person id="agent_from_2_117">
		<plan selected="yes">
			<activity type="h" link="os2" x="12100.0" y="-20890.0" end_time="06:01:57" >
			</activity>
			<leg mode="car" dep_time="06:01:57" trav_time="00:19:49">
				<route type="links" start_link="os2" end_link="-1" trav_time="00:19:49" distance="27600.0">os2 o2 20 -2 1 -1</route>
			</leg>
			<activity type="w" link="-1" x="787.3034766255325" y="60.92193608675734" end_time="15:01:57" >
			</activity>
		</plan>

	</person>

<!-- ====================================================================== -->

	<person id="agent_from_2_118">
		<plan selected="yes">
			<activity type="h" link="os2" x="12100.0" y="-20890.0" end_time="06:01:58" >
			</activity>
			<leg mode="car" dep_time="06:01:58" trav_time="00:19:49">
				<route type="links" start_link="os2" end_link="-3" trav_time="00:19:49" distance="27600.0">os2 o2 20 -2 3 -3</route>
			</leg>
			<activity type="w" link="-3" x="-2.326466527578191" y="-254.90513241613758" end_time="15:01:58" >
			</activity>
		</plan>

	</person>

<!-- ====================================================================== -->

	<person id="agent_from_2_119">
		<plan selected="yes">
			<activity type="h" link="os2" x="12100.0" y="-20890.0" end_time="06:01:59" >
			</activity>
			<leg mode="car" dep_time="06:01:59" trav_time="00:19:49">
				<route type="links" start_link="os2" end_link="-6" trav_time="00:19:49" distance="27600.0">os2 o2 20 -2 6 -6</route>
			</leg>
			<activity type="w" link="-6" x="696.247551397086" y="420.59791940560353" end_time="15:01:59" >
			</activity>
		</plan>

	</person>

<!-- ====================================================================== -->

	<person id="agent_from_2_12">
		<plan selected="yes">
			<activity type="h" link="os2" x="12100.0" y="-20890.0" end_time="06:00:12" >
			</activity>
			<leg mode="car" dep_time="06:00:12" trav_time="00:19:49">
				<route type="links" start_link="os2" end_link="-1" trav_time="00:19:49" distance="27600.0">os2 o2 20 -2 1 -1</route>
			</leg>
			<activity type="w" link="-1" x="487.18533747140873" y="97.52482715825545" end_time="15:00:12" >
			</activity>
		</plan>

	</person>

<!-- ====================================================================== -->

	<person id="agent_from_2_120">
		<plan selected="yes">
			<activity type="h" link="os2" x="12100.0" y="-20890.0" end_time="06:02:00" >
			</activity>
			<leg mode="car" dep_time="06:02:00" trav_time="00:19:49">
				<route type="links" start_link="os2" end_link="-4" trav_time="00:19:49" distance="27600.0">os2 o2 20 -2 4 -4</route>
			</leg>
			<activity type="w" link="-4" x="-647.1884611752059" y="-342.62028308117954" end_time="15:02:00" >
			</activity>
		</plan>

	</person>

<!-- ====================================================================== -->

	<person id="agent_from_2_121">
		<plan selected="yes">
			<activity type="h" link="os2" x="12100.0" y="-20890.0" end_time="06:02:01" >
			</activity>
			<leg mode="car" dep_time="06:02:01" trav_time="00:19:49">
				<route type="links" start_link="os2" end_link="-5" trav_time="00:19:49" distance="27600.0">os2 o2 20 -2 5 -5</route>
			</leg>
			<activity type="w" link="-5" x="-478.9429987980227" y="782.943574421312" end_time="15:02:01" >
			</activity>
		</plan>

	</person>

<!-- ====================================================================== -->

	<person id="agent_from_2_122">
		<plan selected="yes">
			<activity type="h" link="os2" x="12100.0" y="-20890.0" end_time="06:02:02" >
			</activity>
			<leg mode="car" dep_time="06:02:02" trav_time="00:19:49">
				<route type="links" start_link="os2" end_link="-3" trav_time="00:19:49" distance="27600.0">os2 o2 20 -2 3 -3</route>
			</leg>
			<activity type="w" link="-3" x="-379.70266064466114" y="-683.7352632604188" end_time="15:02:02" >
			</activity>
		</plan>

	</person>

<!-- ====================================================================== -->

	<person id="agent_from_2_123">
		<plan selected="yes">
			<activity type="h" link="os2" x="12100.0" y="-20890.0" end_time="06:02:03" >
			</activity>
			<leg mode="car" dep_time="06:02:03" trav_time="00:19:49">
				<route type="links" start_link="os2" end_link="-5" trav_time="00:19:49" distance="27600.0">os2 o2 20 -2 5 -5</route>
			</leg>
			<activity type="w" link="-5" x="-601.4479394888876" y="935.307557510451" end_time="15:02:03" >
			</activity>
		</plan>

	</person>

<!-- ====================================================================== -->

	<person id="agent_from_2_124">
		<plan selected="yes">
			<activity type="h" link="os2" x="12100.0" y="-20890.0" end_time="06:02:04" >
			</activity>
			<leg mode="car" dep_time="06:02:04" trav_time="00:19:49">
				<route type="links" start_link="os2" end_link="-4" trav_time="00:19:49" distance="27600.0">os2 o2 20 -2 4 -4</route>
			</leg>
			<activity type="w" link="-4" x="-742.1098976117285" y="51.48436440233627" end_time="15:02:04" >
			</activity>
		</plan>

	</person>

<!-- ====================================================================== -->

	<person id="agent_from_2_125">
		<plan selected="yes">
			<activity type="h" link="os2" x="12100.0" y="-20890.0" end_time="06:02:05" >
			</activity>
			<leg mode="car" dep_time="06:02:05" trav_time="00:19:49">
				<route type="links" start_link="os2" end_link="-1" trav_time="00:19:49" distance="27600.0">os2 o2 20 -2 1 -1</route>
			</leg>
			<activity type="w" link="-1" x="616.2156104977978" y="192.27617851697914" end_time="15:02:05" >
			</activity>
		</plan>

	</person>

<!-- ====================================================================== -->

	<person id="agent_from_2_126">
		<plan selected="yes">
			<activity type="h" link="os2" x="12100.0" y="-20890.0" end_time="06:02:06" >
			</activity>
			<leg mode="car" dep_time="06:02:06" trav_time="00:18:55">
				<route type="links" start_link="os2" end_link="6" trav_time="00:18:55" distance="26400.0">os2 o2 20 -2 6</route>
			</leg>
			<activity type="w" link="6" x="57.3259231562065" y="815.4209870140432" end_time="15:02:06" >
			</activity>
		</plan>

	</person>

<!-- ====================================================================== -->

	<person id="agent_from_2_127">
		<plan selected="yes">
			<activity type="h" link="os2" x="12100.0" y="-20890.0" end_time="06:02:07" >
			</activity>
			<leg mode="car" dep_time="06:02:07" trav_time="00:18:01">
				<route type="links" start_link="os2" end_link="-2" trav_time="00:18:01" distance="25200.0">os2 o2 20 -2</route>
			</leg>
			<activity type="w" link="-2" x="731.8928901193913" y="-478.46989543996483" end_time="15:02:07" >
			</activity>
		</plan>

	</person>

<!-- ====================================================================== -->

	<person id="agent_from_2_128">
		<plan selected="yes">
			<activity type="h" link="os2" x="12100.0" y="-20890.0" end_time="06:02:08" >
			</activity>
			<leg mode="car" dep_time="06:02:08" trav_time="00:19:49">
				<route type="links" start_link="os2" end_link="-4" trav_time="00:19:49" distance="27600.0">os2 o2 20 -2 4 -4</route>
			</leg>
			<activity type="w" link="-4" x="-791.4010353447192" y="-382.5888049057089" end_time="15:02:08" >
			</activity>
		</plan>

	</person>

<!-- ====================================================================== -->

	<person id="agent_from_2_129">
		<plan selected="yes">
			<activity type="h" link="os2" x="12100.0" y="-20890.0" end_time="06:02:09" >
			</activity>
			<leg mode="car" dep_time="06:02:09" trav_time="00:19:49">
				<route type="links" start_link="os2" end_link="-5" trav_time="00:19:49" distance="27600.0">os2 o2 20 -2 5 -5</route>
			</leg>
			<activity type="w" link="-5" x="-526.6749684735082" y="924.2192790855788" end_time="15:02:09" >
			</activity>
		</plan>

	</person>

<!-- ====================================================================== -->

	<person id="agent_from_2_13">
		<plan selected="yes">
			<activity type="h" link="os2" x="12100.0" y="-20890.0" end_time="06:00:13" >
			</activity>
			<leg mode="car" dep_time="06:00:13" trav_time="00:19:49">
				<route type="links" start_link="os2" end_link="-5" trav_time="00:19:49" distance="27600.0">os2 o2 20 -2 5 -5</route>
			</leg>
			<activity type="w" link="-5" x="-754.6119957687856" y="879.1773037901482" end_time="15:00:13" >
			</activity>
		</plan>

	</person>

<!-- ====================================================================== -->

	<person id="agent_from_2_130">
		<plan selected="yes">
			<activity type="h" link="os2" x="12100.0" y="-20890.0" end_time="06:02:10" >
			</activity>
			<leg mode="car" dep_time="06:02:10" trav_time="00:19:49">
				<route type="links" start_link="os2" end_link="-1" trav_time="00:19:49" distance="27600.0">os2 o2 20 -2 1 -1</route>
			</leg>
			<activity type="w" link="-1" x="115.11426578322175" y="31.02136699648554" end_time="15:02:10" >
			</activity>
		</plan>

	</person>

<!-- ====================================================================== -->

	<person id="agent_from_2_131">
		<plan selected="yes">
			<activity type="h" link="os2" x="12100.0" y="-20890.0" end_time="06:02:11" >
			</activity>
			<leg mode="car" dep_time="06:02:11" trav_time="00:19:49">
				<route type="links" start_link="os2" end_link="-3" trav_time="00:19:49" distance="27600.0">os2 o2 20 -2 3 -3</route>
			</leg>
			<activity type="w" link="-3" x="-155.54470640550642" y="-132.5971180744483" end_time="15:02:11" >
			</activity>
		</plan>

	</person>

<!-- ====================================================================== -->

	<person id="agent_from_2_132">
		<plan selected="yes">
			<activity type="h" link="os2" x="12100.0" y="-20890.0" end_time="06:02:12" >
			</activity>
			<leg mode="car" dep_time="06:02:12" trav_time="00:19:49">
				<route type="links" start_link="os2" end_link="-6" trav_time="00:19:49" distance="27600.0">os2 o2 20 -2 6 -6</route>
			</leg>
			<activity type="w" link="-6" x="629.8171806858577" y="604.0662258609468" end_time="15:02:12" >
			</activity>
		</plan>

	</person>

<!-- ====================================================================== -->

	<person id="agent_from_2_133">
		<plan selected="yes">
			<activity type="h" link="os2" x="12100.0" y="-20890.0" end_time="06:02:13" >
			</activity>
			<leg mode="car" dep_time="06:02:13" trav_time="00:19:49">
				<route type="links" start_link="os2" end_link="-6" trav_time="00:19:49" distance="27600.0">os2 o2 20 -2 6 -6</route>
			</leg>
			<activity type="w" link="-6" x="23.653810707572802" y="177.42896276143733" end_time="15:02:13" >
			</activity>
		</plan>

	</person>

<!-- ====================================================================== -->

	<person id="agent_from_2_134">
		<plan selected="yes">
			<activity type="h" link="os2" x="12100.0" y="-20890.0" end_time="06:02:14" >
			</activity>
			<leg mode="car" dep_time="06:02:14" trav_time="00:19:49">
				<route type="links" start_link="os2" end_link="-4" trav_time="00:19:49" distance="27600.0">os2 o2 20 -2 4 -4</route>
			</leg>
			<activity type="w" link="-4" x="-865.6423441061003" y="-43.779963648718876" end_time="15:02:14" >
			</activity>
		</plan>

	</person>

<!-- ====================================================================== -->

	<person id="agent_from_2_135">
		<plan selected="yes">
			<activity type="h" link="os2" x="12100.0" y="-20890.0" end_time="06:02:15" >
			</activity>
			<leg mode="car" dep_time="06:02:15" trav_time="00:18:01">
				<route type="links" start_link="os2" end_link="-2" trav_time="00:18:01" distance="25200.0">os2 o2 20 -2</route>
			</leg>
			<activity type="w" link="-2" x="484.707149225143" y="-398.0443279990942" end_time="15:02:15" >
			</activity>
		</plan>

	</person>

<!-- ====================================================================== -->

	<person id="agent_from_2_136">
		<plan selected="yes">
			<activity type="h" link="os2" x="12100.0" y="-20890.0" end_time="06:02:16" >
			</activity>
			<leg mode="car" dep_time="06:02:16" trav_time="00:19:49">
				<route type="links" start_link="os2" end_link="-3" trav_time="00:19:49" distance="27600.0">os2 o2 20 -2 3 -3</route>
			</leg>
			<activity type="w" link="-3" x="-677.1996077745388" y="-508.34888258873343" end_time="15:02:16" >
			</activity>
		</plan>

	</person>

<!-- ====================================================================== -->

	<person id="agent_from_2_137">
		<plan selected="yes">
			<activity type="h" link="os2" x="12100.0" y="-20890.0" end_time="06:02:17" >
			</activity>
			<leg mode="car" dep_time="06:02:17" trav_time="00:18:55">
				<route type="links" start_link="os2" end_link="6" trav_time="00:18:55" distance="26400.0">os2 o2 20 -2 6</route>
			</leg>
			<activity type="w" link="6" x="304.6229849058129" y="234.645412271032" end_time="15:02:17" >
			</activity>
		</plan>

	</person>

<!-- ====================================================================== -->

	<person id="agent_from_2_138">
		<plan selected="yes">
			<activity type="h" link="os2" x="12100.0" y="-20890.0" end_time="06:02:18" >
			</activity>
			<leg mode="car" dep_time="06:02:18" trav_time="00:19:49">
				<route type="links" start_link="os2" end_link="-5" trav_time="00:19:49" distance="27600.0">os2 o2 20 -2 5 -5</route>
			</leg>
			<activity type="w" link="-5" x="-321.6547005672619" y="984.1858493549723" end_time="15:02:18" >
			</activity>
		</plan>

	</person>

<!-- ====================================================================== -->

	<person id="agent_from_2_139">
		<plan selected="yes">
			<activity type="h" link="os2" x="12100.0" y="-20890.0" end_time="06:02:19" >
			</activity>
			<leg mode="car" dep_time="06:02:19" trav_time="00:18:55">
				<route type="links" start_link="os2" end_link="3" trav_time="00:18:55" distance="26400.0">os2 o2 20 -2 3</route>
			</leg>
			<activity type="w" link="3" x="-156.99654038281108" y="-829.6089549786075" end_time="15:02:19" >
			</activity>
		</plan>

	</person>

<!-- ====================================================================== -->

	<person id="agent_from_2_14">
		<plan selected="yes">
			<activity type="h" link="os2" x="12100.0" y="-20890.0" end_time="06:00:14" >
			</activity>
			<leg mode="car" dep_time="06:00:14" trav_time="00:19:49">
				<route type="links" start_link="os2" end_link="-6" trav_time="00:19:49" distance="27600.0">os2 o2 20 -2 6 -6</route>
			</leg>
			<activity type="w" link="-6" x="168.76150925408956" y="112.17754060366269" end_time="15:00:14" >
			</activity>
		</plan>

	</person>

<!-- ====================================================================== -->

	<person id="agent_from_2_140">
		<plan selected="yes">
			<activity type="h" link="os2" x="12100.0" y="-20890.0" end_time="06:02:20" >
			</activity>
			<leg mode="car" dep_time="06:02:20" trav_time="00:19:49">
				<route type="links" start_link="os2" end_link="-4" trav_time="00:19:49" distance="27600.0">os2 o2 20 -2 4 -4</route>
			</leg>
			<activity type="w" link="-4" x="-554.0241224675342" y="-189.9112502215437" end_time="15:02:20" >
			</activity>
		</plan>

	</person>

<!-- ====================================================================== -->

	<person id="agent_from_2_141">
		<plan selected="yes">
			<activity type="h" link="os2" x="12100.0" y="-20890.0" end_time="06:02:21" >
			</activity>
			<leg mode="car" dep_time="06:02:21" trav_time="00:19:49">
				<route type="links" start_link="os2" end_link="-3" trav_time="00:19:49" distance="27600.0">os2 o2 20 -2 3 -3</route>
			</leg>
			<activity type="w" link="-3" x="-114.05592061351786" y="-879.739685222136" end_time="15:02:21" >
			</activity>
		</plan>

	</person>

<!-- ====================================================================== -->

	<person id="agent_from_2_142">
		<plan selected="yes">
			<activity type="h" link="os2" x="12100.0" y="-20890.0" end_time="06:02:22" >
			</activity>
			<leg mode="car" dep_time="06:02:22" trav_time="00:19:49">
				<route type="links" start_link="os2" end_link="-4" trav_time="00:19:49" distance="27600.0">os2 o2 20 -2 4 -4</route>
			</leg>
			<activity type="w" link="-4" x="-594.0940185417192" y="308.6207078953853" end_time="15:02:22" >
			</activity>
		</plan>

	</person>

<!-- ====================================================================== -->

	<person id="agent_from_2_143">
		<plan selected="yes">
			<activity type="h" link="os2" x="12100.0" y="-20890.0" end_time="06:02:23" >
			</activity>
			<leg mode="car" dep_time="06:02:23" trav_time="00:18:55">
				<route type="links" start_link="os2" end_link="5" trav_time="00:18:55" distance="26400.0">os2 o2 20 -2 5</route>
			</leg>
			<activity type="w" link="5" x="-56.88299266000206" y="264.17444486955674" end_time="15:02:23" >
			</activity>
		</plan>

	</person>

<!-- ====================================================================== -->

	<person id="agent_from_2_144">
		<plan selected="yes">
			<activity type="h" link="os2" x="12100.0" y="-20890.0" end_time="06:02:24" >
			</activity>
			<leg mode="car" dep_time="06:02:24" trav_time="00:19:49">
				<route type="links" start_link="os2" end_link="-1" trav_time="00:19:49" distance="27600.0">os2 o2 20 -2 1 -1</route>
			</leg>
			<activity type="w" link="-1" x="942.1485305623683" y="-356.88128942191906" end_time="15:02:24" >
			</activity>
		</plan>

	</person>

<!-- ====================================================================== -->

	<person id="agent_from_2_145">
		<plan selected="yes">
			<activity type="h" link="os2" x="12100.0" y="-20890.0" end_time="06:02:25" >
			</activity>
			<leg mode="car" dep_time="06:02:25" trav_time="00:18:01">
				<route type="links" start_link="os2" end_link="-2" trav_time="00:18:01" distance="25200.0">os2 o2 20 -2</route>
			</leg>
			<activity type="w" link="-2" x="669.9025162689707" y="-644.3363686835409" end_time="15:02:25" >
			</activity>
		</plan>

	</person>

<!-- ====================================================================== -->

	<person id="agent_from_2_146">
		<plan selected="yes">