<?xml version="1.0" encoding="UTF-8"?>
<vehicleDefinitions xmlns="http://www.matsim.org/files/dtd" xmlns:xsi="http://www.w3.org/2001/XMLSchema-instance" xsi:schemaLocation="http://www.matsim.org/files/dtd http://www.matsim.org/files/dtd/vehicleDefinitions_v1.0.xsd">
	<vehicleType id="PAZ32030208">
		<description/>
		<capacity>
			<seats persons="20"/>
			<standingRoom persons="50"/>
		</capacity>
		<length meter="28.09"/>
	</vehicleType>
	
<vehicle id="Bus_1" type="PAZ32030208"/>
</vehicleDefinitions>